6
Coordinates from ORCA-job orca
  O      -1.769142     -0.076181     -0.000000
  H      -2.065745      0.837492      0.000000
  H      -0.809034      0.001317     -0.000000
  O       1.283899      0.088882      0.000000
  H       1.580006     -0.425760      0.756361
  H       1.580006     -0.425760     -0.756361
